$# LS-DYNA Keyword file created by LS-PrePost 4.1 - 05Jun2014(09:00)
$# Created on Sep-23-2014 (17:33:43)
*KEYWORD
*TITLE
$# title
Amaya Seat (pitch 850mm, modified cusion back, 2 joints)
*DATABASE_HISTORY_NODE
$#     id1       id2       id3       id4       id5       id6       id7       id8
      1450         0         0         0         0         0         0         0
*BOUNDARY_PRESCRIBED_MOTION_RIGID_ID
$#      id                                                               heading
         1tx
$#     pid       dof       vad      lcid        sf       vid     death     birth
       100         1         2         1  1.000000         01.0000E+28     0.000
$#      id                                                               heading
         2ty
$#     pid       dof       vad      lcid        sf       vid     death     birth
       100         2         2         1  1.000000         01.0000E+28     0.000
$#      id                                                               heading
         3tz
$#     pid       dof       vad      lcid        sf       vid     death     birth
       100         3         2         1  1.000000         01.0000E+28     0.000
$#      id                                                               heading
         4rx
$#     pid       dof       vad      lcid        sf       vid     death     birth
       100         5         2         1  1.000000         01.0000E+28     0.000
$#      id                                                               heading
         5ry
$#     pid       dof       vad      lcid        sf       vid     death     birth
       100         6         2         1  1.000000         01.0000E+28     0.000
$#      id                                                               heading
         6rz
$#     pid       dof       vad      lcid        sf       vid     death     birth
       100         7         2         1  1.000000         01.0000E+28     0.000
*PART_INERTIA
$# title
cg
$#     pid     secid       mid     eosid      hgid      grav    adpopt      tmid
       100         1         1         0         0         0         0         0
$#      xc        yc        zc        tm      ircs    nodeid
     0.000     0.000     0.000 100.00000         0      1450
$#     ixx       ixy       ixz       iyy       iyz       izz
 8.3340E+6     0.000     0.000 5.2080E+7     0.000 6.0420E+7
$#     vtx       vty       vtz       vrx       vry       vrz
     0.000     0.000     0.000     0.000     0.000     0.000
*SECTION_SHELL_TITLE
shell_t5
$#   secid    elform      shrf       nip     propt   qr/irid     icomp     setyp
         1         2  1.000000         2         1         0         0         1
$#      t1        t2        t3        t4      nloc     marea      idof    edgset
  5.000000  5.000000  5.000000  5.000000     0.000     0.000     0.000         0
*MAT_RIGID_TITLE
steel
$#     mid        ro         e        pr         n    couple         m     alias
         1 7.8300E-6 200.00000  0.300000     0.000     0.000     0.000          
$#     cmo      con1      con2
     0.000        0.        0.
$# lco or a1      a2        a3        v1        v2        v3
     0.000     0.000     0.000     0.000     0.000     0.000
*PART_INERTIA
$# title
                                                                                
$#     pid     secid       mid     eosid      hgid      grav    adpopt      tmid
       111       101         1         0         0         0         0         0
$#      xc        yc        zc        tm      ircs    nodeid
     0.000     0.000     0.000 12.000000         0    205110
$#     ixx       ixy       ixz       iyy       iyz       izz
 1.8260E+5     0.000-12036.000 2.1760E+5     0.000 3.5500E+5
$#     vtx       vty       vtz       vrx       vry       vrz
     0.000     0.000     0.000     0.000     0.000     0.000
*PART_INERTIA
$# title
                                                                                
$#     pid     secid       mid     eosid      hgid      grav    adpopt      tmid
       112       101         1         0         0         0         0         0
$#      xc        yc        zc        tm      ircs    nodeid
     0.000     0.000     0.000  7.000000         0    205111
$#     ixx       ixy       ixz       iyy       iyz       izz
 2.4350E+5     0.000 73895.000 1.9590E+5     0.000 1.3910E+5
$#     vtx       vty       vtz       vrx       vry       vrz
     0.000     0.000     0.000     0.000     0.000     0.000
*PART_INERTIA
$# title
                                                                                
$#     pid     secid       mid     eosid      hgid      grav    adpopt      tmid
       113       101         1         0         0         0         0         0
$#      xc        yc        zc        tm      ircs    nodeid
     0.000     0.000     0.000  2.000000         0    205112
$#     ixx       ixy       ixz       iyy       iyz       izz
 16850.000     0.000-149.86000 9247.4004     0.000 13230.000
$#     vtx       vty       vtz       vrx       vry       vrz
     0.000     0.000     0.000     0.000     0.000     0.000
*PART
$# title
seat_side_cusion
$#     pid     secid       mid     eosid      hgid      grav    adpopt      tmid
       121       101         1         0         0         0         0         0
*PART
$# title
seat_side_back
$#     pid     secid       mid     eosid      hgid      grav    adpopt      tmid
       122       101         1         0         0         0         0         0
*PART
$# title
sseat_side_headrest
$#     pid     secid       mid     eosid      hgid      grav    adpopt      tmid
       123       101         1         0         0         0         0         0
*PART
$# title
Anchor_1
$#     pid     secid       mid     eosid      hgid      grav    adpopt      tmid
       131       101         1         0         0         0         0         0
*PART
$# title
Anchor_2
$#     pid     secid       mid     eosid      hgid      grav    adpopt      tmid
       132       101         1         0         0         0         0         0
*PART
$# title
Anchor_3
$#     pid     secid       mid     eosid      hgid      grav    adpopt      tmid
       133       101         1         0         0         0         0         0
*PART
$# title
Anchor_4
$#     pid     secid       mid     eosid      hgid      grav    adpopt      tmid
       134       101         1         0         0         0         0         0
*PART
$# title
floor
$#     pid     secid       mid     eosid      hgid      grav    adpopt      tmid
       200         1         1         0         0         0         0         0
*PART_INERTIA
$# title
                                                                                
$#     pid     secid       mid     eosid      hgid      grav    adpopt      tmid
       211       201         1         0         0         0         0         0
$#      xc        yc        zc        tm      ircs    nodeid
     0.000 500.00000     0.000 12.000000         0    305110
$#     ixx       ixy       ixz       iyy       iyz       izz
 1.8260E+5     0.000-12036.000 2.1760E+5     0.000 3.5500E+5
$#     vtx       vty       vtz       vrx       vry       vrz
     0.000 500.00000     0.000     0.000     0.000     0.000
*PART_INERTIA
$# title
                                                                                
$#     pid     secid       mid     eosid      hgid      grav    adpopt      tmid
       212       201         1         0         0         0         0         0
$#      xc        yc        zc        tm      ircs    nodeid
     0.000 500.00000     0.000  7.000000         0    305111
$#     ixx       ixy       ixz       iyy       iyz       izz
 2.4350E+5     0.000 73895.000 1.9590E+5     0.000 1.3910E+5
$#     vtx       vty       vtz       vrx       vry       vrz
     0.000 500.00000     0.000     0.000     0.000     0.000
*PART_INERTIA
$# title
                                                                                
$#     pid     secid       mid     eosid      hgid      grav    adpopt      tmid
       213       201         1         0         0         0         0         0
$#      xc        yc        zc        tm      ircs    nodeid
     0.000 500.00000     0.000  2.000000         0    305112
$#     ixx       ixy       ixz       iyy       iyz       izz
 16850.000     0.000-149.86000 9247.4004     0.000 13230.000
$#     vtx       vty       vtz       vrx       vry       vrz
     0.000 500.00000     0.000     0.000     0.000     0.000
*PART
$# title
seat_side_cusion
$#     pid     secid       mid     eosid      hgid      grav    adpopt      tmid
       221       201         1         0         0         0         0         0
*PART
$# title
seat_side_back
$#     pid     secid       mid     eosid      hgid      grav    adpopt      tmid
       222       201         1         0         0         0         0         0
*PART
$# title
sseat_side_headrest
$#     pid     secid       mid     eosid      hgid      grav    adpopt      tmid
       223       201         1         0         0         0         0         0
*PART
$# title
Anchor_1
$#     pid     secid       mid     eosid      hgid      grav    adpopt      tmid
       231       201         1         0         0         0         0         0
*PART
$# title
Anchor_2
$#     pid     secid       mid     eosid      hgid      grav    adpopt      tmid
       232       201         1         0         0         0         0         0
*PART
$# title
Anchor_3
$#     pid     secid       mid     eosid      hgid      grav    adpopt      tmid
       233       201         1         0         0         0         0         0
*PART
$# title
Anchor_4
$#     pid     secid       mid     eosid      hgid      grav    adpopt      tmid
       234       201         1         0         0         0         0         0
*PART_INERTIA
$# title
                                                                                
$#     pid     secid       mid     eosid      hgid      grav    adpopt      tmid
       311       301         1         0         0         0         0         0
$#      xc        yc        zc        tm      ircs    nodeid
 840.00000     0.000     0.000 12.000000         0    405110
$#     ixx       ixy       ixz       iyy       iyz       izz
 1.8260E+5     0.000-12036.000 2.1760E+5     0.000 3.5500E+5
$#     vtx       vty       vtz       vrx       vry       vrz
 840.00000     0.000     0.000     0.000     0.000     0.000
*PART_INERTIA
$# title
                                                                                
$#     pid     secid       mid     eosid      hgid      grav    adpopt      tmid
       312       301         1         0         0         0         0         0
$#      xc        yc        zc        tm      ircs    nodeid
 840.00000     0.000     0.000  7.000000         0    405111
$#     ixx       ixy       ixz       iyy       iyz       izz
 2.4350E+5     0.000 73895.000 1.9590E+5     0.000 1.3910E+5
$#     vtx       vty       vtz       vrx       vry       vrz
 840.00000     0.000     0.000     0.000     0.000     0.000
*PART_INERTIA
$# title
                                                                                
$#     pid     secid       mid     eosid      hgid      grav    adpopt      tmid
       313       301         1         0         0         0         0         0
$#      xc        yc        zc        tm      ircs    nodeid
 840.00000     0.000     0.000  2.000000         0    405112
$#     ixx       ixy       ixz       iyy       iyz       izz
 16850.000     0.000-149.86000 9247.4004     0.000 13230.000
$#     vtx       vty       vtz       vrx       vry       vrz
 840.00000     0.000     0.000     0.000     0.000     0.000
*PART
$# title
seat_side_cusion
$#     pid     secid       mid     eosid      hgid      grav    adpopt      tmid
       321       301         1         0         0         0         0         0
*PART
$# title
seat_side_back
$#     pid     secid       mid     eosid      hgid      grav    adpopt      tmid
       322       301         1         0         0         0         0         0
*PART
$# title
sseat_side_headrest
$#     pid     secid       mid     eosid      hgid      grav    adpopt      tmid
       323       301         1         0         0         0         0         0
*PART
$# title
Anchor_1
$#     pid     secid       mid     eosid      hgid      grav    adpopt      tmid
       331       301         1         0         0         0         0         0
*PART
$# title
Anchor_2
$#     pid     secid       mid     eosid      hgid      grav    adpopt      tmid
       332       301         1         0         0         0         0         0
*PART
$# title
Anchor_3
$#     pid     secid       mid     eosid      hgid      grav    adpopt      tmid
       333       301         1         0         0         0         0         0
*PART
$# title
Anchor_4
$#     pid     secid       mid     eosid      hgid      grav    adpopt      tmid
       334       301         1         0         0         0         0         0
*PART_INERTIA
$# title
                                                                                
$#     pid     secid       mid     eosid      hgid      grav    adpopt      tmid
       411       401         1         0         0         0         0         0
$#      xc        yc        zc        tm      ircs    nodeid
 840.00000 500.00000     0.000 12.000000         0    505110
$#     ixx       ixy       ixz       iyy       iyz       izz
 1.8260E+5     0.000-12036.000 2.1760E+5     0.000 3.5500E+5
$#     vtx       vty       vtz       vrx       vry       vrz
 840.00000 500.00000     0.000     0.000     0.000     0.000
*PART_INERTIA
$# title
                                                                                
$#     pid     secid       mid     eosid      hgid      grav    adpopt      tmid
       412       401         1         0         0         0         0         0
$#      xc        yc        zc        tm      ircs    nodeid
 840.00000 500.00000     0.000  7.000000         0    505111
$#     ixx       ixy       ixz       iyy       iyz       izz
 2.4350E+5     0.000 73895.000 1.9590E+5     0.000 1.3910E+5
$#     vtx       vty       vtz       vrx       vry       vrz
 840.00000 500.00000     0.000     0.000     0.000     0.000
*PART_INERTIA
$# title
                                                                                
$#     pid     secid       mid     eosid      hgid      grav    adpopt      tmid
       413       401         1         0         0         0         0         0
$#      xc        yc        zc        tm      ircs    nodeid
 840.00000 500.00000     0.000  2.000000         0    505112
$#     ixx       ixy       ixz       iyy       iyz       izz
 16850.000     0.000-149.86000 9247.4004     0.000 13230.000
$#     vtx       vty       vtz       vrx       vry       vrz
 840.00000 500.00000     0.000     0.000     0.000     0.000
*PART
$# title
seat_side_cusion
$#     pid     secid       mid     eosid      hgid      grav    adpopt      tmid
       421       401         1         0         0         0         0         0
*PART
$# title
seat_side_back
$#     pid     secid       mid     eosid      hgid      grav    adpopt      tmid
       422       401         1         0         0         0         0         0
*PART
$# title
sseat_side_headrest
$#     pid     secid       mid     eosid      hgid      grav    adpopt      tmid
       423       401         1         0         0         0         0         0
*PART
$# title
Anchor_1
$#     pid     secid       mid     eosid      hgid      grav    adpopt      tmid
       431       401         1         0         0         0         0         0
*PART
$# title
Anchor_2
$#     pid     secid       mid     eosid      hgid      grav    adpopt      tmid
       432       401         1         0         0         0         0         0
*PART
$# title
Anchor_3
$#     pid     secid       mid     eosid      hgid      grav    adpopt      tmid
       433       401         1         0         0         0         0         0
*PART
$# title
Anchor_4
$#     pid     secid       mid     eosid      hgid      grav    adpopt      tmid
       434       401         1         0         0         0         0         0
*PART_INERTIA
$# title
                                                                                
$#     pid     secid       mid     eosid      hgid      grav    adpopt      tmid
       511       501         1         0         0         0         0         0
$#      xc        yc        zc        tm      ircs    nodeid
 1680.0000     0.000     0.000 12.000000         0    605110
$#     ixx       ixy       ixz       iyy       iyz       izz
 1.8260E+5     0.000-12036.000 2.1760E+5     0.000 3.5500E+5
$#     vtx       vty       vtz       vrx       vry       vrz
 1680.0000     0.000     0.000     0.000     0.000     0.000
*PART_INERTIA
$# title
                                                                                
$#     pid     secid       mid     eosid      hgid      grav    adpopt      tmid
       512       501         1         0         0         0         0         0
$#      xc        yc        zc        tm      ircs    nodeid
 1680.0000     0.000     0.000  7.000000         0    605111
$#     ixx       ixy       ixz       iyy       iyz       izz
 2.4350E+5     0.000 73895.000 1.9590E+5     0.000 1.3910E+5
$#     vtx       vty       vtz       vrx       vry       vrz
 1680.0000     0.000     0.000     0.000     0.000     0.000
*PART_INERTIA
$# title
                                                                                
$#     pid     secid       mid     eosid      hgid      grav    adpopt      tmid
       513       501         1         0         0         0         0         0
$#      xc        yc        zc        tm      ircs    nodeid
 1680.0000     0.000     0.000  2.000000         0    605112
$#     ixx       ixy       ixz       iyy       iyz       izz
 16850.000     0.000-149.86000 9247.4004     0.000 13230.000
$#     vtx       vty       vtz       vrx       vry       vrz
 1680.0000     0.000     0.000     0.000     0.000     0.000
*PART
$# title
seat_side_cusion
$#     pid     secid       mid     eosid      hgid      grav    adpopt      tmid
       521       501         1         0         0         0         0         0
*PART
$# title
seat_side_back
$#     pid     secid       mid     eosid      hgid      grav    adpopt      tmid
       522       501         1         0         0         0         0         0
*PART
$# title
sseat_side_headrest
$#     pid     secid       mid     eosid      hgid      grav    adpopt      tmid
       523       501         1         0         0         0         0         0
*PART
$# title
Anchor_1
$#     pid     secid       mid     eosid      hgid      grav    adpopt      tmid
       531       501         1         0         0         0         0         0
*PART
$# title
Anchor_2
$#     pid     secid       mid     eosid      hgid      grav    adpopt      tmid
       532       501         1         0         0         0         0         0
*PART
$# title
Anchor_3
$#     pid     secid       mid     eosid      hgid      grav    adpopt      tmid
       533       501         1         0         0         0         0         0
*PART
$# title
Anchor_4
$#     pid     secid       mid     eosid      hgid      grav    adpopt      tmid
       534       501         1         0         0         0         0         0
*PART_INERTIA
$# title
                                                                                
$#     pid     secid       mid     eosid      hgid      grav    adpopt      tmid
       611       601         1         0         0         0         0         0
$#      xc        yc        zc        tm      ircs    nodeid
 1680.0000 500.00000     0.000 12.000000         0    705110
$#     ixx       ixy       ixz       iyy       iyz       izz
 1.8260E+5     0.000-12036.000 2.1760E+5     0.000 3.5500E+5
$#     vtx       vty       vtz       vrx       vry       vrz
 1680.0000 500.00000     0.000     0.000     0.000     0.000
*PART_INERTIA
$# title
                                                                                
$#     pid     secid       mid     eosid      hgid      grav    adpopt      tmid
       612       601         1         0         0         0         0         0
$#      xc        yc        zc        tm      ircs    nodeid
 1680.0000 500.00000     0.000  7.000000         0    705111
$#     ixx       ixy       ixz       iyy       iyz       izz
 2.4350E+5     0.000 73895.000 1.9590E+5     0.000 1.3910E+5
$#     vtx       vty       vtz       vrx       vry       vrz
 1680.0000 500.00000     0.000     0.000     0.000     0.000
*PART_INERTIA
$# title
                                                                                
$#     pid     secid       mid     eosid      hgid      grav    adpopt      tmid
       613       601         1         0         0         0         0         0
$#      xc        yc        zc        tm      ircs    nodeid
 1680.0000 500.00000     0.000  2.000000         0    705112
$#     ixx       ixy       ixz       iyy       iyz       izz
 16850.000     0.000-149.86000 9247.4004     0.000 13230.000
$#     vtx       vty       vtz       vrx       vry       vrz
 1680.0000 500.00000     0.000     0.000     0.000     0.000
*PART
$# title
seat_side_cusion
$#     pid     secid       mid     eosid      hgid      grav    adpopt      tmid
       621       601         1         0         0         0         0         0
*PART
$# title
seat_side_back
$#     pid     secid       mid     eosid      hgid      grav    adpopt      tmid
       622       601         1         0         0         0         0         0
*PART
$# title
sseat_side_headrest
$#     pid     secid       mid     eosid      hgid      grav    adpopt      tmid
       623       601         1         0         0         0         0         0
*PART
$# title
Anchor_1
$#     pid     secid       mid     eosid      hgid      grav    adpopt      tmid
       631       601         1         0         0         0         0         0
*PART
$# title
Anchor_2
$#     pid     secid       mid     eosid      hgid      grav    adpopt      tmid
       632       601         1         0         0         0         0         0
*PART
$# title
Anchor_3
$#     pid     secid       mid     eosid      hgid      grav    adpopt      tmid
       633       601         1         0         0         0         0         0
*PART
$# title
Anchor_4
$#     pid     secid       mid     eosid      hgid      grav    adpopt      tmid
       634       601         1         0         0         0         0         0
*DEFINE_COORDINATE_NODES
$#     cid        n1        n2        n3      flag       dir
       221    202102    202103    202104         0X
*DEFINE_COORDINATE_NODES
$#     cid        n1        n2        n3      flag       dir
       222    202202    202203    202204         0X
*DEFINE_COORDINATE_NODES
$#     cid        n1        n2        n3      flag       dir
       231    203102    203103    203104         0X
*DEFINE_COORDINATE_NODES
$#     cid        n1        n2        n3      flag       dir
       232    203202    203203    203204         0X
*DEFINE_COORDINATE_NODES
$#     cid        n1        n2        n3      flag       dir
       321    302102    302103    302104         0X
*DEFINE_COORDINATE_NODES
$#     cid        n1        n2        n3      flag       dir
       322    302202    302203    302204         0X
*DEFINE_COORDINATE_NODES
$#     cid        n1        n2        n3      flag       dir
       331    303102    303103    303104         0X
*DEFINE_COORDINATE_NODES
$#     cid        n1        n2        n3      flag       dir
       332    303202    303203    303204         0X
*DEFINE_COORDINATE_NODES
$#     cid        n1        n2        n3      flag       dir
       421    402102    402103    402104         0X
*DEFINE_COORDINATE_NODES
$#     cid        n1        n2        n3      flag       dir
       422    402202    402203    402204         0X
*DEFINE_COORDINATE_NODES
$#     cid        n1        n2        n3      flag       dir
       431    403102    403103    403104         0X
*DEFINE_COORDINATE_NODES
$#     cid        n1        n2        n3      flag       dir
       432    403202    403203    403204         0X
*DEFINE_COORDINATE_NODES
$#     cid        n1        n2        n3      flag       dir
       521    502102    502103    502104         0X
*DEFINE_COORDINATE_NODES
$#     cid        n1        n2        n3      flag       dir
       522    502202    502203    502204         0X
*DEFINE_COORDINATE_NODES
$#     cid        n1        n2        n3      flag       dir
       531    503102    503103    503104         0X
*DEFINE_COORDINATE_NODES
$#     cid        n1        n2        n3      flag       dir
       532    503202    503203    503204         0X
*DEFINE_COORDINATE_NODES
$#     cid        n1        n2        n3      flag       dir
       621    602102    602103    602104         0X
*DEFINE_COORDINATE_NODES
$#     cid        n1        n2        n3      flag       dir
       622    602202    602203    602204         0X
*DEFINE_COORDINATE_NODES
$#     cid        n1        n2        n3      flag       dir
       631    603102    603103    603104         0X
*DEFINE_COORDINATE_NODES
$#     cid        n1        n2        n3      flag       dir
       632    603202    603203    603204         0X
*DEFINE_COORDINATE_NODES
$#     cid        n1        n2        n3      flag       dir
       721    702102    702103    702104         0X
*DEFINE_COORDINATE_NODES
$#     cid        n1        n2        n3      flag       dir
       722    702202    702203    702204         0X
*DEFINE_COORDINATE_NODES
$#     cid        n1        n2        n3      flag       dir
       731    703102    703103    703104         0X
*DEFINE_COORDINATE_NODES
$#     cid        n1        n2        n3      flag       dir
       732    703202    703203    703204         0X
*DEFINE_CURVE_TITLE
zero_motion
$#    lcid      sidr       sfa       sfo      offa      offo    dattyp
         1         0  1.000000  1.000000     0.000     0.000         0
$#                a1                  o1
               0.000               0.000
         1200.000000               0.000
*DEFINE_TRANSFORMATION
$#  tranid
         1
$# option         a1        a2        a3        a4        a5        a6        a7
TRANSL         0.000     0.000     0.000     0.000     0.000     0.000     0.000
*DEFINE_TRANSFORMATION
$#  tranid
         2
$# option         a1        a2        a3        a4        a5        a6        a7
TRANSL         0.000 500.00000     0.000     0.000     0.000     0.000     0.000
*DEFINE_TRANSFORMATION
$#  tranid
         3
$# option         a1        a2        a3        a4        a5        a6        a7
TRANSL     840.00000     0.000     0.000     0.000     0.000     0.000     0.000
*DEFINE_TRANSFORMATION
$#  tranid
         4
$# option         a1        a2        a3        a4        a5        a6        a7
TRANSL     840.00000 500.00000     0.000     0.000     0.000     0.000     0.000
*DEFINE_TRANSFORMATION
$#  tranid
         5
$# option         a1        a2        a3        a4        a5        a6        a7
TRANSL     1680.0000     0.000     0.000     0.000     0.000     0.000     0.000
*DEFINE_TRANSFORMATION
$#  tranid
         6
$# option         a1        a2        a3        a4        a5        a6        a7
TRANSL     1680.0000 500.00000     0.000     0.000     0.000     0.000     0.000
*SET_NODE_LIST_TITLE
constrained_to_cusion_pid111
$#     sid       da1       da2       da3       da4    solver
       211     0.000     0.000     0.000     0.000MECH
$#    nid1      nid2      nid3      nid4      nid5      nid6      nid7      nid8
    202100    202101    202102    202103    202104    203100    203101    203102
    203103    203104         0         0         0         0         0         0
*SET_NODE_LIST_TITLE
constrained_to_seatback_pid_112
$#     sid       da1       da2       da3       da4    solver
       212     0.000     0.000     0.000     0.000MECH
$#    nid1      nid2      nid3      nid4      nid5      nid6      nid7      nid8
    202200    202201    202202    202203    202204    203200    203201    203202
    203203    203204         0         0         0         0         0         0
         0         0         0         0         0         0         0         0
*SET_NODE_LIST_TITLE
constrained_to_cusion_pid111
$#     sid       da1       da2       da3       da4    solver
       311     0.000     0.000     0.000     0.000MECH
$#    nid1      nid2      nid3      nid4      nid5      nid6      nid7      nid8
    302100    302101    302102    302103    302104    303100    303101    303102
    303103    303104         0         0         0         0         0         0
*SET_NODE_LIST_TITLE
constrained_to_seatback_pid_112
$#     sid       da1       da2       da3       da4    solver
       312     0.000     0.000     0.000     0.000MECH
$#    nid1      nid2      nid3      nid4      nid5      nid6      nid7      nid8
    302200    302201    302202    302203    302204    303200    303201    303202
    303203    303204         0         0         0         0         0         0
         0         0         0         0         0         0         0         0
*SET_NODE_LIST_TITLE
constrained_to_cusion_pid111
$#     sid       da1       da2       da3       da4    solver
       411     0.000     0.000     0.000     0.000MECH
$#    nid1      nid2      nid3      nid4      nid5      nid6      nid7      nid8
    402100    402101    402102    402103    402104    403100    403101    403102
    403103    403104         0         0         0         0         0         0
*SET_NODE_LIST_TITLE
constrained_to_seatback_pid_112
$#     sid       da1       da2       da3       da4    solver
       412     0.000     0.000     0.000     0.000MECH
$#    nid1      nid2      nid3      nid4      nid5      nid6      nid7      nid8
    402200    402201    402202    402203    402204    403200    403201    403202
    403203    403204         0         0         0         0         0         0
         0         0         0         0         0         0         0         0
*SET_NODE_LIST_TITLE
constrained_to_cusion_pid111
$#     sid       da1       da2       da3       da4    solver
       511     0.000     0.000     0.000     0.000MECH
$#    nid1      nid2      nid3      nid4      nid5      nid6      nid7      nid8
    502100    502101    502102    502103    502104    503100    503101    503102
    503103    503104         0         0         0         0         0         0
*SET_NODE_LIST_TITLE
constrained_to_seatback_pid_112
$#     sid       da1       da2       da3       da4    solver
       512     0.000     0.000     0.000     0.000MECH
$#    nid1      nid2      nid3      nid4      nid5      nid6      nid7      nid8
    502200    502201    502202    502203    502204    503200    503201    503202
    503203    503204         0         0         0         0         0         0
         0         0         0         0         0         0         0         0
*SET_NODE_LIST_TITLE
constrained_to_cusion_pid111
$#     sid       da1       da2       da3       da4    solver
       611     0.000     0.000     0.000     0.000MECH
$#    nid1      nid2      nid3      nid4      nid5      nid6      nid7      nid8
    602100    602101    602102    602103    602104    603100    603101    603102
    603103    603104         0         0         0         0         0         0
*SET_NODE_LIST_TITLE
constrained_to_seatback_pid_112
$#     sid       da1       da2       da3       da4    solver
       612     0.000     0.000     0.000     0.000MECH
$#    nid1      nid2      nid3      nid4      nid5      nid6      nid7      nid8
    602200    602201    602202    602203    602204    603200    603201    603202
    603203    603204         0         0         0         0         0         0
         0         0         0         0         0         0         0         0
*SET_NODE_LIST_TITLE
constrained_to_cusion_pid111
$#     sid       da1       da2       da3       da4    solver
       711     0.000     0.000     0.000     0.000MECH
$#    nid1      nid2      nid3      nid4      nid5      nid6      nid7      nid8
    702100    702101    702102    702103    702104    703100    703101    703102
    703103    703104         0         0         0         0         0         0
*SET_NODE_LIST_TITLE
constrained_to_seatback_pid_112
$#     sid       da1       da2       da3       da4    solver
       712     0.000     0.000     0.000     0.000MECH
$#    nid1      nid2      nid3      nid4      nid5      nid6      nid7      nid8
    702200    702201    702202    702203    702204    703200    703201    703202
    703203    703204         0         0         0         0         0         0
         0         0         0         0         0         0         0         0
*SET_PART_LIST
$#     sid       da1       da2       da3       da4    solver
         1     0.000     0.000     0.000     0.000MECH
$#    pid1      pid2      pid3      pid4      pid5      pid6      pid7      pid8
       111       112       113       121       122       123       131       132
       133       134       200       211       212       213       221       222
       223       231       232       233       234       311       312       313
       321       322       323       331       332       333       334       411
       412       413       421       422       423       431       432       433
       434       511       512       513       521       522       523       531
       532       533       534       611       612       613       621       622
       623       631       632       633       634         0         0         0
*CONSTRAINED_EXTRA_NODES_SET
$#     pid      nsid     iflag
       111       211         0
*CONSTRAINED_EXTRA_NODES_SET
$#     pid      nsid     iflag
       112       212         0
*CONSTRAINED_EXTRA_NODES_NODE
$#     pid       nid     iflag
       111    205110         0
       112    205111         0
       113    205112         0
*CONSTRAINED_EXTRA_NODES_SET
$#     pid      nsid     iflag
       211       311         0
*CONSTRAINED_EXTRA_NODES_SET
$#     pid      nsid     iflag
       212       312         0
*CONSTRAINED_EXTRA_NODES_NODE
$#     pid       nid     iflag
       211    305110         0
       212    305111         0
       213    305112         0
*CONSTRAINED_EXTRA_NODES_SET
$#     pid      nsid     iflag
       311       411         0
*CONSTRAINED_EXTRA_NODES_SET
$#     pid      nsid     iflag
       312       412         0
*CONSTRAINED_EXTRA_NODES_NODE
$#     pid       nid     iflag
       311    405110         0
       312    405111         0
       313    405112         0
*CONSTRAINED_EXTRA_NODES_SET
$#     pid      nsid     iflag
       411       511         0
*CONSTRAINED_EXTRA_NODES_SET
$#     pid      nsid     iflag
       412       512         0
*CONSTRAINED_EXTRA_NODES_NODE
$#     pid       nid     iflag
       411    505110         0
       412    505111         0
       413    505112         0
*CONSTRAINED_EXTRA_NODES_SET
$#     pid      nsid     iflag
       511       611         0
*CONSTRAINED_EXTRA_NODES_SET
$#     pid      nsid     iflag
       512       612         0
*CONSTRAINED_EXTRA_NODES_NODE
$#     pid       nid     iflag
       511    605110         0
       512    605111         0
       513    605112         0
*CONSTRAINED_EXTRA_NODES_SET
$#     pid      nsid     iflag
       611       711         0
*CONSTRAINED_EXTRA_NODES_SET
$#     pid      nsid     iflag
       612       712         0
*CONSTRAINED_EXTRA_NODES_NODE
$#     pid       nid     iflag
       611    705110         0
       612    705111         0
       613    705112         0
*CONSTRAINED_JOINT_REVOLUTE_ID
$#     jid                                                                 title
       222                                                                      
$#      n1        n2        n3        n4        n5        n6       rps      damp
    202100    202200    202101    202201         0         0  1.000000  1.000000
*CONSTRAINED_JOINT_REVOLUTE_ID
       232                                                                      
    203100    203200    203101    203201         0         0  1.000000  1.000000
*CONSTRAINED_JOINT_REVOLUTE_ID
       322                                                                      
    302100    302200    302101    302201         0         0  1.000000  1.000000
*CONSTRAINED_JOINT_REVOLUTE_ID
       332                                                                      
    303100    303200    303101    303201         0         0  1.000000  1.000000
*CONSTRAINED_JOINT_REVOLUTE_ID
       422                                                                      
    402100    402200    402101    402201         0         0  1.000000  1.000000
*CONSTRAINED_JOINT_REVOLUTE_ID
       432                                                                      
    403100    403200    403101    403201         0         0  1.000000  1.000000
*CONSTRAINED_JOINT_REVOLUTE_ID
       522                                                                      
    502100    502200    502101    502201         0         0  1.000000  1.000000
*CONSTRAINED_JOINT_REVOLUTE_ID
       532                                                                      
    503100    503200    503101    503201         0         0  1.000000  1.000000
*CONSTRAINED_JOINT_REVOLUTE_ID
       622                                                                      
    602100    602200    602101    602201         0         0  1.000000  1.000000
*CONSTRAINED_JOINT_REVOLUTE_ID
       632                                                                      
    603100    603200    603101    603201         0         0  1.000000  1.000000
*CONSTRAINED_JOINT_REVOLUTE_ID
       722                                                                      
    702100    702200    702101    702201         0         0  1.000000  1.000000
*CONSTRAINED_JOINT_REVOLUTE_ID
       732                                                                      
    703100    703200    703101    703201         0         0  1.000000  1.000000
*CONSTRAINED_JOINT_STIFFNESS_GENERALIZED
$#    jsid      pida      pidb      cida      cidb       jid
       223       111       112       221       222         0
$#  lcidph     lcidt    lcidps   dlcidph    dlcidt   dlcidps
         0       102         0         0         0         0
$#    esph      fmph       est       fmt      esps      fmps
     0.000     0.000     0.000     0.000     0.000     0.000
$#   nsaph     psaph      nsat      psat     nsaps     psaps
     0.000     0.000     0.000     0.000     0.000     0.000
*CONSTRAINED_JOINT_STIFFNESS_GENERALIZED
$#    jsid      pida      pidb      cida      cidb       jid
       233       111       112       231       232         0
$#  lcidph     lcidt    lcidps   dlcidph    dlcidt   dlcidps
         0       102         0         0         0         0
$#    esph      fmph       est       fmt      esps      fmps
     0.000     0.000     0.000     0.000     0.000     0.000
$#   nsaph     psaph      nsat      psat     nsaps     psaps
     0.000     0.000     0.000     0.000     0.000     0.000
*CONSTRAINED_JOINT_STIFFNESS_GENERALIZED
$#    jsid      pida      pidb      cida      cidb       jid
       323       211       212       321       322         0
$#  lcidph     lcidt    lcidps   dlcidph    dlcidt   dlcidps
         0       202         0         0         0         0
$#    esph      fmph       est       fmt      esps      fmps
     0.000     0.000     0.000     0.000     0.000     0.000
$#   nsaph     psaph      nsat      psat     nsaps     psaps
     0.000     0.000     0.000     0.000     0.000     0.000
*CONSTRAINED_JOINT_STIFFNESS_GENERALIZED
$#    jsid      pida      pidb      cida      cidb       jid
       333       211       212       331       332         0
$#  lcidph     lcidt    lcidps   dlcidph    dlcidt   dlcidps
         0       202         0         0         0         0
$#    esph      fmph       est       fmt      esps      fmps
     0.000     0.000     0.000     0.000     0.000     0.000
$#   nsaph     psaph      nsat      psat     nsaps     psaps
     0.000     0.000     0.000     0.000     0.000     0.000
*CONSTRAINED_JOINT_STIFFNESS_GENERALIZED
$#    jsid      pida      pidb      cida      cidb       jid
       423       311       312       421       422         0
$#  lcidph     lcidt    lcidps   dlcidph    dlcidt   dlcidps
         0       302         0         0         0         0
$#    esph      fmph       est       fmt      esps      fmps
     0.000     0.000     0.000     0.000     0.000     0.000
$#   nsaph     psaph      nsat      psat     nsaps     psaps
     0.000     0.000     0.000     0.000     0.000     0.000
*CONSTRAINED_JOINT_STIFFNESS_GENERALIZED
$#    jsid      pida      pidb      cida      cidb       jid
       433       311       312       431       432         0
$#  lcidph     lcidt    lcidps   dlcidph    dlcidt   dlcidps
         0       302         0         0         0         0
$#    esph      fmph       est       fmt      esps      fmps
     0.000     0.000     0.000     0.000     0.000     0.000
$#   nsaph     psaph      nsat      psat     nsaps     psaps
     0.000     0.000     0.000     0.000     0.000     0.000
*CONSTRAINED_JOINT_STIFFNESS_GENERALIZED
$#    jsid      pida      pidb      cida      cidb       jid
       523       411       412       521       522         0
$#  lcidph     lcidt    lcidps   dlcidph    dlcidt   dlcidps
         0       402         0         0         0         0
$#    esph      fmph       est       fmt      esps      fmps
     0.000     0.000     0.000     0.000     0.000     0.000
$#   nsaph     psaph      nsat      psat     nsaps     psaps
     0.000     0.000     0.000     0.000     0.000     0.000
*CONSTRAINED_JOINT_STIFFNESS_GENERALIZED
$#    jsid      pida      pidb      cida      cidb       jid
       533       411       412       531       532         0
$#  lcidph     lcidt    lcidps   dlcidph    dlcidt   dlcidps
         0       402         0         0         0         0
$#    esph      fmph       est       fmt      esps      fmps
     0.000     0.000     0.000     0.000     0.000     0.000
$#   nsaph     psaph      nsat      psat     nsaps     psaps
     0.000     0.000     0.000     0.000     0.000     0.000
*CONSTRAINED_JOINT_STIFFNESS_GENERALIZED
$#    jsid      pida      pidb      cida      cidb       jid
       623       511       512       621       622         0
$#  lcidph     lcidt    lcidps   dlcidph    dlcidt   dlcidps
         0       502         0         0         0         0
$#    esph      fmph       est       fmt      esps      fmps
     0.000     0.000     0.000     0.000     0.000     0.000
$#   nsaph     psaph      nsat      psat     nsaps     psaps
     0.000     0.000     0.000     0.000     0.000     0.000
*CONSTRAINED_JOINT_STIFFNESS_GENERALIZED
$#    jsid      pida      pidb      cida      cidb       jid
       633       511       512       631       632         0
$#  lcidph     lcidt    lcidps   dlcidph    dlcidt   dlcidps
         0       502         0         0         0         0
$#    esph      fmph       est       fmt      esps      fmps
     0.000     0.000     0.000     0.000     0.000     0.000
$#   nsaph     psaph      nsat      psat     nsaps     psaps
     0.000     0.000     0.000     0.000     0.000     0.000
*CONSTRAINED_JOINT_STIFFNESS_GENERALIZED
$#    jsid      pida      pidb      cida      cidb       jid
       723       611       612       721       722         0
$#  lcidph     lcidt    lcidps   dlcidph    dlcidt   dlcidps
         0       602         0         0         0         0
$#    esph      fmph       est       fmt      esps      fmps
     0.000     0.000     0.000     0.000     0.000     0.000
$#   nsaph     psaph      nsat      psat     nsaps     psaps
     0.000     0.000     0.000     0.000     0.000     0.000
*CONSTRAINED_JOINT_STIFFNESS_GENERALIZED
$#    jsid      pida      pidb      cida      cidb       jid
       733       611       612       731       732         0
$#  lcidph     lcidt    lcidps   dlcidph    dlcidt   dlcidps
         0       602         0         0         0         0
$#    esph      fmph       est       fmt      esps      fmps
     0.000     0.000     0.000     0.000     0.000     0.000
$#   nsaph     psaph      nsat      psat     nsaps     psaps
     0.000     0.000     0.000     0.000     0.000     0.000
*CONSTRAINED_RIGID_BODIES
$#    pidm      pids     iflag
       100       200         0
       112       113         0
       111       121         0
       112       122         0
       113       123         0
       112       131         0
       111       132         0
       111       133         0
       111       134         0
       112       213         0
       111       221         0
       112       222         0
       213       223         0
       212       231         0
       211       232         0
       211       233         0
       211       234         0
       112       313         0
       111       321         0
       112       322         0
$ ... 29 like lines cut
*ELEMENT_SHELL
$#   eid     pid      n1      n2      n3      n4      n5      n6      n7      n8
    1261     100    1450    1456    1457    1458       0       0       0       0
    1262     100    1451    1450    1458    1459       0       0       0       0
    1263     100    1452    1454    1450    1451       0       0       0       0
    1264     100    1455    1456    1450    1454       0       0       0       0
    1265     200    1460    1481    1482    1461       0       0       0       0
    1266     200    1461    1482    1483    1462       0       0       0       0
    1267     200    1462    1483    1484    1463       0       0       0       0
    1268     200    1463    1484    1485    1464       0       0       0       0
    1269     200    1464    1485    1486    1465       0       0       0       0
    1270     200    1465    1486    1487    1466       0       0       0       0
    1271     200    1466    1487    1488    1467       0       0       0       0
    1272     200    1467    1488    1489    1468       0       0       0       0
    1273     200    1468    1489    1490    1469       0       0       0       0
    1274     200    1469    1490    1491    1470       0       0       0       0
    1275     200    1470    1491    1492    1471       0       0       0       0
    1276     200    1471    1492    1493    1472       0       0       0       0
    1277     200    1472    1493    1494    1473       0       0       0       0
    1278     200    1473    1494    1495    1474       0       0       0       0
    1279     200    1474    1495    1496    1475       0       0       0       0
    1280     200    1475    1496    1497    1476       0       0       0       0
$ ... 4260 like lines cut
*ELEMENT_SEATBELT_ACCELEROMETER
$#  sbacid      nid1      nid2      nid3     igrav    intopt      mass
         1      1450      1456      1454         1         1     0.000
*NODE
$#   nid               x               y               z      tc      rc
    1450      750.000000           0.000           0.000       0       0
    1451      850.000000           0.000           0.000       0       0
    1452      850.000000      100.000000           0.000       0       0
    1454      750.000000      100.000000           0.000       0       0
    1455      650.000000      100.000000           0.000       0       0
    1456      650.000000           0.000           0.000       0       0
    1457      650.000000     -100.000000           0.000       0       0
    1458      750.000000     -100.000000           0.000       0       0
    1459      850.000000     -100.000000           0.000       0       0
    1460     -500.000000     -500.000000        1.880001       0       0
    1461     -500.000000     -450.000000        1.930000       0       0
    1462     -500.000000     -400.000000        1.980000       0       0
    1463     -500.000000     -350.000000        2.029999       0       0
    1464     -500.000000     -300.000000        2.080002       0       0
    1465     -500.000000     -250.000000        2.130001       0       0
    1466     -500.000000     -200.000000        2.180000       0       0
    1467     -500.000000     -150.000000        2.230000       0       0
    1468     -500.000000     -100.000000        2.279999       0       0
    1469     -500.000000      -50.000000        2.330002       0       0
    1470     -500.000000  -5.684342e-014        2.380001       0       0
$ ... 4924 like lines cut
*END
